scripts/ieee_123bus_1ph_copy2.dss
Clear
New Circuit.network basekv=1.2 pu=1.0 phases=1
Edit Vsource.Source bus1=0.1 phases=1 basekv=1.2 pu=1.0
New Line.L_0_1 phases=1 bus1=0.1 bus2=1.1 r1=1e-06 x1=1e-06 length=1 units=km
New Line.L_1_2 phases=1 bus1=1.1 bus2=2.1 r1=0.0232 x1=0.0475 length=1 units=km
New Line.L_2_3 phases=1 bus1=2.1 bus2=3.1 r1=0.0441 x1=0.0447 length=1 units=km
New Line.L_2_4 phases=1 bus1=2.1 bus2=4.1 r1=0.0629 x1=0.0638 length=1 units=km
New Line.L_2_5 phases=1 bus1=2.1 bus2=5.1 r1=0.0174 x1=0.0356 length=1 units=km
New Line.L_4_6 phases=1 bus1=4.1 bus2=6.1 r1=0.0503 x1=0.051 length=1 units=km
New Line.L_4_7 phases=1 bus1=4.1 bus2=7.1 r1=0.0818 x1=0.0829 length=1 units=km
New Line.L_7_8 phases=1 bus1=7.1 bus2=8.1 r1=0.0629 x1=0.0638 length=1 units=km
New Line.L_5_9 phases=1 bus1=5.1 bus2=9.1 r1=0.0116 x1=0.0238 length=1 units=km
New Line.L_9_10 phases=1 bus1=9.1 bus2=10.1 r1=0.0566 x1=0.0574 length=1 units=km
New Line.L_9_11 phases=1 bus1=9.1 bus2=11.1 r1=0.0566 x1=0.0574 length=1 units=km
New Line.L_9_12 phases=1 bus1=9.1 bus2=12.1 r1=0.0174 x1=0.0356 length=1 units=km
New Line.L_11_13 phases=1 bus1=11.1 bus2=13.1 r1=1e-06 x1=1e-06 length=1 units=km
New Line.L_13_14 phases=1 bus1=13.1 bus2=14.1 r1=1e-06 x1=1e-06 length=1 units=km
New Line.L_12_15 phases=1 bus1=12.1 bus2=15.1 r1=0.0378 x1=0.0383 length=1 units=km
New Line.L_12_16 phases=1 bus1=12.1 bus2=16.1 r1=0.0478 x1=0.098 length=1 units=km
New Line.L_14_17 phases=1 bus1=14.1 bus2=17.1 r1=0.0629 x1=0.0638 length=1 units=km
New Line.L_14_18 phases=1 bus1=14.1 bus2=18.1 r1=0.0629 x1=0.0638 length=1 units=km
New Line.L_19_20 phases=1 bus1=19.1 bus2=20.1 r1=0.0944 x1=0.0957 length=1 units=km
New Line.L_19_21 phases=1 bus1=19.1 bus2=21.1 r1=0.0881 x1=0.0893 length=1 units=km
New Line.L_16_22 phases=1 bus1=16.1 bus2=22.1 r1=0.0629 x1=0.0638 length=1 units=km
New Line.L_16_23 phases=1 bus1=16.1 bus2=23.1 r1=0.0174 x1=0.0356 length=1 units=km
New Line.L_22_24 phases=1 bus1=22.1 bus2=24.1 r1=0.0818 x1=0.0829 length=1 units=km
New Line.L_23_25 phases=1 bus1=23.1 bus2=25.1 r1=0.1322 x1=0.134 length=1 units=km
New Line.L_23_26 phases=1 bus1=23.1 bus2=26.1 r1=0.0145 x1=0.0297 length=1 units=km
New Line.L_26_27 phases=1 bus1=26.1 bus2=27.1 r1=0.1385 x1=0.1404 length=1 units=km
New Line.L_26_28 phases=1 bus1=26.1 bus2=28.1 r1=0.0159 x1=0.0327 length=1 units=km
New Line.L_28_29 phases=1 bus1=28.1 bus2=29.1 r1=1e-06 x1=1e-06 length=1 units=km
New Line.L_29_30 phases=1 bus1=29.1 bus2=30.1 r1=0.0203 x1=0.0455 length=1 units=km
New Line.L_28_31 phases=1 bus1=28.1 bus2=31.1 r1=0.0116 x1=0.0238 length=1 units=km
New Line.L_30_32 phases=1 bus1=30.1 bus2=32.1 r1=0.0159 x1=0.0358 length=1 units=km
New Line.L_30_33 phases=1 bus1=30.1 bus2=33.1 r1=0.0566 x1=0.0574 length=1 units=km
New Line.L_32_34 phases=1 bus1=32.1 bus2=34.1 r1=0.1259 x1=0.1276 length=1 units=km
New Line.L_31_35 phases=1 bus1=31.1 bus2=35.1 r1=0.0174 x1=0.0356 length=1 units=km
New Line.L_35_36 phases=1 bus1=35.1 bus2=36.1 r1=0.0203 x1=0.0416 length=1 units=km
New Line.L_36_37 phases=1 bus1=36.1 bus2=37.1 r1=0.0116 x1=0.0238 length=1 units=km
New Line.L_33_38 phases=1 bus1=33.1 bus2=38.1 r1=0.0755 x1=0.0766 length=1 units=km
New Line.L_15_19 phases=1 bus1=15.1 bus2=19.1 r1=0.0252 x1=0.0255 length=1 units=km
New Line.L_39_40 phases=1 bus1=39.1 bus2=40.1 r1=0.0377 x1=0.0845 length=1 units=km
New Line.L_39_41 phases=1 bus1=39.1 bus2=41.1 r1=0.0145 x1=0.0297 length=1 units=km
New Line.L_40_42 phases=1 bus1=40.1 bus2=42.1 r1=0.0755 x1=0.0766 length=1 units=km
New Line.L_40_43 phases=1 bus1=40.1 bus2=43.1 r1=0.0629 x1=0.0638 length=1 units=km
New Line.L_43_44 phases=1 bus1=43.1 bus2=44.1 r1=0.0818 x1=0.0829 length=1 units=km
New Line.L_41_45 phases=1 bus1=41.1 bus2=45.1 r1=0.0818 x1=0.0829 length=1 units=km
New Line.L_41_46 phases=1 bus1=41.1 bus2=46.1 r1=0.0145 x1=0.0297 length=1 units=km
New Line.L_46_47 phases=1 bus1=46.1 bus2=47.1 r1=0.1259 x1=0.1276 length=1 units=km
New Line.L_46_48 phases=1 bus1=46.1 bus2=48.1 r1=0.0116 x1=0.0238 length=1 units=km
New Line.L_48_49 phases=1 bus1=48.1 bus2=49.1 r1=0.0503 x1=0.051 length=1 units=km
New Line.L_48_50 phases=1 bus1=48.1 bus2=50.1 r1=0.0145 x1=0.0297 length=1 units=km
New Line.L_49_51 phases=1 bus1=49.1 bus2=51.1 r1=0.0755 x1=0.0766 length=1 units=km
New Line.L_50_52 phases=1 bus1=50.1 bus2=52.1 r1=0.0087 x1=0.0178 length=1 units=km
New Line.L_50_53 phases=1 bus1=50.1 bus2=53.1 r1=0.0145 x1=0.0297 length=1 units=km
New Line.L_53_54 phases=1 bus1=53.1 bus2=54.1 r1=0.0145 x1=0.0297 length=1 units=km
New Line.L_54_55 phases=1 bus1=54.1 bus2=55.1 r1=0.0145 x1=0.0297 length=1 units=km
New Line.L_56_57 phases=1 bus1=56.1 bus2=57.1 r1=0.0116 x1=0.0238 length=1 units=km
New Line.L_57_58 phases=1 bus1=57.1 bus2=58.1 r1=0.0072 x1=0.0148 length=1 units=km
New Line.L_58_59 phases=1 bus1=58.1 bus2=59.1 r1=0.0159 x1=0.0327 length=1 units=km
New Line.L_58_60 phases=1 bus1=58.1 bus2=60.1 r1=0.0203 x1=0.0416 length=1 units=km
New Line.L_59_61 phases=1 bus1=59.1 bus2=61.1 r1=0.0159 x1=0.0327 length=1 units=km
New Line.L_60_62 phases=1 bus1=60.1 bus2=62.1 r1=0.0629 x1=0.0638 length=1 units=km
New Line.L_60_63 phases=1 bus1=60.1 bus2=63.1 r1=0.0435 x1=0.0891 length=1 units=km
New Line.L_62_64 phases=1 bus1=62.1 bus2=64.1 r1=0.0629 x1=0.0638 length=1 units=km
New Line.L_63_65 phases=1 bus1=63.1 bus2=65.1 r1=0.0319 x1=0.0653 length=1 units=km
New Line.L_63_66 phases=1 bus1=63.1 bus2=66.1 r1=0.048 x1=0.0229 length=1 units=km
New Line.L_66_67 phases=1 bus1=66.1 bus2=67.1 r1=0.0336 x1=0.016 length=1 units=km
New Line.L_67_68 phases=1 bus1=67.1 bus2=68.1 r1=0.0672 x1=0.032 length=1 units=km
New Line.L_68_69 phases=1 bus1=68.1 bus2=69.1 r1=0.0816 x1=0.0389 length=1 units=km
New Line.L_69_70 phases=1 bus1=69.1 bus2=70.1 r1=0.0624 x1=0.0297 length=1 units=km
New Line.L_71_72 phases=1 bus1=71.1 bus2=72.1 r1=0.0503 x1=0.051 length=1 units=km
New Line.L_71_73 phases=1 bus1=71.1 bus2=73.1 r1=0.0159 x1=0.0327 length=1 units=km
New Line.L_71_74 phases=1 bus1=71.1 bus2=74.1 r1=0.0145 x1=0.0297 length=1 units=km
New Line.L_72_75 phases=1 bus1=72.1 bus2=75.1 r1=0.0692 x1=0.0702 length=1 units=km
New Line.L_75_76 phases=1 bus1=75.1 bus2=76.1 r1=0.0818 x1=0.0829 length=1 units=km
New Line.L_76_77 phases=1 bus1=76.1 bus2=77.1 r1=0.0692 x1=0.0702 length=1 units=km
New Line.L_73_78 phases=1 bus1=73.1 bus2=78.1 r1=0.0692 x1=0.0702 length=1 units=km
New Line.L_73_79 phases=1 bus1=73.1 bus2=79.1 r1=0.0116 x1=0.0238 length=1 units=km
New Line.L_78_80 phases=1 bus1=78.1 bus2=80.1 r1=0.0881 x1=0.0893 length=1 units=km
New Line.L_80_81 phases=1 bus1=80.1 bus2=81.1 r1=0.1007 x1=0.1021 length=1 units=km
New Line.L_79_82 phases=1 bus1=79.1 bus2=82.1 r1=0.0232 x1=0.0475 length=1 units=km
New Line.L_79_83 phases=1 bus1=79.1 bus2=83.1 r1=0.0406 x1=0.0831 length=1 units=km
New Line.L_82_84 phases=1 bus1=82.1 bus2=84.1 r1=0.0058 x1=0.0119 length=1 units=km
New Line.L_84_85 phases=1 bus1=84.1 bus2=85.1 r1=0.013 x1=0.0267 length=1 units=km
New Line.L_84_86 phases=1 bus1=84.1 bus2=86.1 r1=0.0275 x1=0.0564 length=1 units=km
New Line.L_86_87 phases=1 bus1=86.1 bus2=87.1 r1=0.0101 x1=0.0208 length=1 units=km
New Line.L_87_88 phases=1 bus1=87.1 bus2=88.1 r1=0.0145 x1=0.0297 length=1 units=km
New Line.L_87_89 phases=1 bus1=87.1 bus2=89.1 r1=0.1699 x1=0.1723 length=1 units=km
New Line.L_88_90 phases=1 bus1=88.1 bus2=90.1 r1=0.0145 x1=0.0297 length=1 units=km
New Line.L_89_91 phases=1 bus1=89.1 bus2=91.1 r1=0.1196 x1=0.1212 length=1 units=km
New Line.L_83_92 phases=1 bus1=83.1 bus2=92.1 r1=0.0261 x1=0.0534 length=1 units=km
New Line.L_92_93 phases=1 bus1=92.1 bus2=93.1 r1=0.0441 x1=0.0447 length=1 units=km
New Line.L_92_94 phases=1 bus1=92.1 bus2=94.1 r1=0.0159 x1=0.0327 length=1 units=km
New Line.L_94_95 phases=1 bus1=94.1 bus2=95.1 r1=0.0566 x1=0.0574 length=1 units=km
New Line.L_94_96 phases=1 bus1=94.1 bus2=96.1 r1=0.013 x1=0.0267 length=1 units=km
New Line.L_96_97 phases=1 bus1=96.1 bus2=97.1 r1=0.0755 x1=0.0766 length=1 units=km
New Line.L_96_98 phases=1 bus1=96.1 bus2=98.1 r1=0.013 x1=0.0267 length=1 units=km
New Line.L_98_99 phases=1 bus1=98.1 bus2=99.1 r1=0.0692 x1=0.0702 length=1 units=km
New Line.L_98_100 phases=1 bus1=98.1 bus2=100.1 r1=0.0174 x1=0.0356 length=1 units=km
New Line.L_100_101 phases=1 bus1=100.1 bus2=101.1 r1=0.0503 x1=0.051 length=1 units=km
New Line.L_74_102 phases=1 bus1=74.1 bus2=102.1 r1=0.0159 x1=0.0327 length=1 units=km
New Line.L_102_103 phases=1 bus1=102.1 bus2=103.1 r1=0.0319 x1=0.0653 length=1 units=km
New Line.L_103_104 phases=1 bus1=103.1 bus2=104.1 r1=0.0174 x1=0.0356 length=1 units=km
New Line.L_104_105 phases=1 bus1=104.1 bus2=105.1 r1=0.0464 x1=0.095 length=1 units=km
New Line.L_106_107 phases=1 bus1=106.1 bus2=107.1 r1=0.0566 x1=0.0574 length=1 units=km
New Line.L_106_108 phases=1 bus1=106.1 bus2=108.1 r1=0.0159 x1=0.0327 length=1 units=km
New Line.L_107_109 phases=1 bus1=107.1 bus2=109.1 r1=0.0818 x1=0.0829 length=1 units=km
New Line.L_109_110 phases=1 bus1=109.1 bus2=110.1 r1=0.1762 x1=0.1786 length=1 units=km
New Line.L_108_111 phases=1 bus1=108.1 bus2=111.1 r1=0.0566 x1=0.0574 length=1 units=km
New Line.L_108_112 phases=1 bus1=108.1 bus2=112.1 r1=0.0188 x1=0.0386 length=1 units=km
New Line.L_111_113 phases=1 bus1=111.1 bus2=113.1 r1=0.1448 x1=0.1467 length=1 units=km
New Line.L_112_114 phases=1 bus1=112.1 bus2=114.1 r1=0.1133 x1=0.1148 length=1 units=km
New Line.L_112_115 phases=1 bus1=112.1 bus2=115.1 r1=0.05797 x1=0.11876 length=1 units=km
New Line.L_114_116 phases=1 bus1=114.1 bus2=116.1 r1=0.0755 x1=0.0766 length=1 units=km
New Line.L_116_117 phases=1 bus1=116.1 bus2=117.1 r1=0.1448 x1=0.1467 length=1 units=km
New Line.L_116_118 phases=1 bus1=116.1 bus2=118.1 r1=0.0315 x1=0.0319 length=1 units=km
New Line.L_118_119 phases=1 bus1=118.1 bus2=119.1 r1=0.1322 x1=0.134 length=1 units=km
New Line.L_119_120 phases=1 bus1=119.1 bus2=120.1 r1=0.0818 x1=0.0829 length=1 units=km
New Line.L_121_39 phases=1 bus1=121.1 bus2=39.1 r1=0.0217 x1=0.0445 length=1 units=km
New Line.L_122_56 phases=1 bus1=122.1 bus2=56.1 r1=0.0232 x1=0.0475 length=1 units=km
New Line.L_55_123 phases=1 bus1=55.1 bus2=123.1 r1=0.029 x1=0.0594 length=1 units=km
New Line.L_124_125 phases=1 bus1=124.1 bus2=125.1 r1=1e-06 x1=1e-06 length=1 units=km
New Line.L_125_71 phases=1 bus1=125.1 bus2=71.1 r1=0.0203 x1=0.0416 length=1 units=km
New Line.L_126_106 phases=1 bus1=126.1 bus2=106.1 r1=0.0145 x1=0.0297 length=1 units=km
New Line.L_12_122 phases=1 bus1=12.1 bus2=122.1 r1=1e-06 x1=1e-06 length=1 units=km
New Line.L_16_121 phases=1 bus1=16.1 bus2=121.1 r1=1e-06 x1=1e-06 length=1 units=km
New Line.L_63_124 phases=1 bus1=63.1 bus2=124.1 r1=1e-06 x1=1e-06 length=1 units=km
New Line.L_74_126 phases=1 bus1=74.1 bus2=126.1 r1=1e-06 x1=1e-06 length=1 units=km
New Line.L_65_127 phases=1 bus1=65.1 bus2=127.1 r1=0.0001 x1=0.0001 length=1 units=km

New LoadShape.LS_1 npts=10 interval=0.000833 Pmult=(0.34117 0.34197333 0.34168333 0.34179667 0.34133 0.341223324 0.34124999500000003 0.34150333 0.34219666 0.34535667000000003)

New load.S3P Bus=3.1 Phases=1 Model=1 kV=2.4018 kW=13.33 kVAr=6.667 Vminpu=0.95 Vmaxpu=1.05 Daily=LS_1
New load.S4P Bus=4.1 Phases=1 Model=1 kV=2.4018 kW=6.667 kVAr=3.333 Vminpu=0.95 Vmaxpu=1.05 Daily=LS_1
New load.S6P Bus=6.1 Phases=1 Model=1 kV=2.4018 kW=13.33 kVAr=6.667 Vminpu=0.95 Vmaxpu=1.05 Daily=LS_1
New load.S7P Bus=7.1 Phases=1 Model=1 kV=2.4018 kW=6.667 kVAr=3.333 Vminpu=0.95 Vmaxpu=1.05 Daily=LS_1
New load.S8P Bus=8.1 Phases=1 Model=1 kV=2.4018 kW=13.33 kVAr=6.667 Vminpu=0.95 Vmaxpu=1.05 Daily=LS_1
New load.S9P Bus=9.1 Phases=1 Model=1 kV=2.4018 kW=6.667 kVAr=3.333 Vminpu=0.95 Vmaxpu=1.05 Daily=LS_1
New load.S11P Bus=11.1 Phases=1 Model=1 kV=2.4018 kW=13.33 kVAr=6.667 Vminpu=0.95 Vmaxpu=1.05 Daily=LS_1
New load.S12P Bus=12.1 Phases=1 Model=1 kV=2.4018 kW=6.667 kVAr=3.333 Vminpu=0.95 Vmaxpu=1.05 Daily=LS_1
New load.S13P Bus=13.1 Phases=1 Model=1 kV=2.4018 kW=13.33 kVAr=6.667 Vminpu=0.95 Vmaxpu=1.05 Daily=LS_1
New load.S14P Bus=14.1 Phases=1 Model=1 kV=2.4018 kW=6.667 kVAr=3.333 Vminpu=0.95 Vmaxpu=1.05 Daily=LS_1
New load.S18P Bus=18.1 Phases=1 Model=1 kV=2.4018 kW=13.33 kVAr=6.667 Vminpu=0.95 Vmaxpu=1.05 Daily=LS_1
New load.S19P Bus=19.1 Phases=1 Model=1 kV=2.4018 kW=6.667 kVAr=3.333 Vminpu=0.95 Vmaxpu=1.05 Daily=LS_1
New load.S21P Bus=21.1 Phases=1 Model=1 kV=2.4018 kW=13.33 kVAr=6.667 Vminpu=0.95 Vmaxpu=1.05 Daily=LS_1
New load.S22P Bus=22.1 Phases=1 Model=1 kV=2.4018 kW=13.33 kVAr=6.667 Vminpu=0.95 Vmaxpu=1.05 Daily=LS_1
New load.S24P Bus=24.1 Phases=1 Model=1 kV=2.4018 kW=13.33 kVAr=6.667 Vminpu=0.95 Vmaxpu=1.05 Daily=LS_1
New load.S26P Bus=26.1 Phases=1 Model=1 kV=2.4018 kW=13.33 kVAr=6.667 Vminpu=0.95 Vmaxpu=1.05 Daily=LS_1
New load.S30P Bus=30.1 Phases=1 Model=1 kV=2.4018 kW=13.33 kVAr=6.667 Vminpu=0.95 Vmaxpu=1.05 Daily=LS_1
New load.S31P Bus=31.1 Phases=1 Model=1 kV=2.4018 kW=13.33 kVAr=6.667 Vminpu=0.95 Vmaxpu=1.05 Daily=LS_1
New load.S32P Bus=32.1 Phases=1 Model=1 kV=2.4018 kW=13.33 kVAr=6.667 Vminpu=0.95 Vmaxpu=1.05 Daily=LS_1
New load.S33P Bus=33.1 Phases=1 Model=1 kV=2.4018 kW=6.667 kVAr=3.333 Vminpu=0.95 Vmaxpu=1.05 Daily=LS_1
New load.S34P Bus=34.1 Phases=1 Model=1 kV=2.4018 kW=6.667 kVAr=3.333 Vminpu=0.95 Vmaxpu=1.05 Daily=LS_1
New load.S35P Bus=35.1 Phases=1 Model=1 kV=2.4018 kW=13.33 kVAr=6.667 Vminpu=0.95 Vmaxpu=1.05 Daily=LS_1
New load.S36P Bus=36.1 Phases=1 Model=1 kV=2.4018 kW=13.33 kVAr=6.667 Vminpu=0.95 Vmaxpu=1.05 Daily=LS_1
New load.S37P Bus=37.1 Phases=1 Model=1 kV=2.4018 kW=13.33 kVAr=6.667 Vminpu=0.95 Vmaxpu=1.05 Daily=LS_1
New load.S39P Bus=39.1 Phases=1 Model=1 kV=2.4018 kW=13.33 kVAr=6.667 Vminpu=0.95 Vmaxpu=1.05 Daily=LS_1
New load.S40P Bus=40.1 Phases=1 Model=1 kV=2.4018 kW=6.667 kVAr=3.333 Vminpu=0.95 Vmaxpu=1.05 Daily=LS_1
New load.S41P Bus=41.1 Phases=1 Model=1 kV=2.4018 kW=6.667 kVAr=3.333 Vminpu=0.95 Vmaxpu=1.05 Daily=LS_1
New load.S43P Bus=43.1 Phases=1 Model=1 kV=2.4018 kW=6.667 kVAr=3.333 Vminpu=0.95 Vmaxpu=1.05 Daily=LS_1
New load.S44P Bus=44.1 Phases=1 Model=1 kV=2.4018 kW=6.667 kVAr=3.333 Vminpu=0.95 Vmaxpu=1.05 Daily=LS_1
New load.S45P Bus=45.1 Phases=1 Model=1 kV=2.4018 kW=13.33 kVAr=6.667 Vminpu=0.95 Vmaxpu=1.05 Daily=LS_1
New load.S47P Bus=47.1 Phases=1 Model=1 kV=2.4018 kW=6.667 kVAr=3.333 Vminpu=0.95 Vmaxpu=1.05 Daily=LS_1
New load.S48P Bus=48.1 Phases=1 Model=1 kV=2.4018 kW=6.667 kVAr=3.333 Vminpu=0.95 Vmaxpu=1.05 Daily=LS_1
New load.S49P Bus=49.1 Phases=1 Model=1 kV=2.4018 kW=35 kVAr=25 Vminpu=0.95 Vmaxpu=1.05 Daily=LS_1
New load.S50P Bus=50.1 Phases=1 Model=1 kV=2.4018 kW=70 kVAr=50 Vminpu=0.95 Vmaxpu=1.05 Daily=LS_1
New load.S51P Bus=51.1 Phases=1 Model=1 kV=2.4018 kW=46.67 kVAr=31.67 Vminpu=0.95 Vmaxpu=1.05 Daily=LS_1
New load.S52P Bus=52.1 Phases=1 Model=1 kV=2.4018 kW=13.33 kVAr=6.667 Vminpu=0.95 Vmaxpu=1.05 Daily=LS_1
New load.S53P Bus=53.1 Phases=1 Model=1 kV=2.4018 kW=6.667 kVAr=3.333 Vminpu=0.95 Vmaxpu=1.05 Daily=LS_1
New load.S54P Bus=54.1 Phases=1 Model=1 kV=2.4018 kW=13.33 kVAr=6.667 Vminpu=0.95 Vmaxpu=1.05 Daily=LS_1
New load.S55P Bus=55.1 Phases=1 Model=1 kV=2.4018 kW=13.33 kVAr=6.667 Vminpu=0.95 Vmaxpu=1.05 Daily=LS_1
New load.S57P Bus=57.1 Phases=1 Model=1 kV=2.4018 kW=6.667 kVAr=3.333 Vminpu=0.95 Vmaxpu=1.05 Daily=LS_1
New load.S58P Bus=58.1 Phases=1 Model=1 kV=2.4018 kW=6.667 kVAr=3.333 Vminpu=0.95 Vmaxpu=1.05 Daily=LS_1
New load.S60P Bus=60.1 Phases=1 Model=1 kV=2.4018 kW=6.667 kVAr=3.333 Vminpu=0.95 Vmaxpu=1.05 Daily=LS_1
New load.S61P Bus=61.1 Phases=1 Model=1 kV=2.4018 kW=6.667 kVAr=3.333 Vminpu=0.95 Vmaxpu=1.05 Daily=LS_1
New load.S62P Bus=62.1 Phases=1 Model=1 kV=2.4018 kW=6.667 kVAr=3.333 Vminpu=0.95 Vmaxpu=1.05 Daily=LS_1
New load.S64P Bus=64.1 Phases=1 Model=1 kV=2.4018 kW=13.33 kVAr=6.667 Vminpu=0.95 Vmaxpu=1.05 Daily=LS_1
New load.S65P Bus=65.1 Phases=1 Model=1 kV=2.4018 kW=13.33 kVAr=6.667 Vminpu=0.95 Vmaxpu=1.05 Daily=LS_1
New load.S66P Bus=66.1 Phases=1 Model=1 kV=2.4018 kW=25 kVAr=11.67 Vminpu=0.95 Vmaxpu=1.05 Daily=LS_1
New load.S67P Bus=67.1 Phases=1 Model=1 kV=2.4018 kW=46.67 kVAr=33.33 Vminpu=0.95 Vmaxpu=1.05 Daily=LS_1
New load.S68P Bus=68.1 Phases=1 Model=1 kV=2.4018 kW=25 kVAr=11.67 Vminpu=0.95 Vmaxpu=1.05 Daily=LS_1
New load.S70P Bus=70.1 Phases=1 Model=1 kV=2.4018 kW=6.667 kVAr=3.333 Vminpu=0.95 Vmaxpu=1.05 Daily=LS_1
New load.S71P Bus=71.1 Phases=1 Model=1 kV=2.4018 kW=13.33 kVAr=6.667 Vminpu=0.95 Vmaxpu=1.05 Daily=LS_1
New load.S72P Bus=72.1 Phases=1 Model=1 kV=2.4018 kW=6.667 kVAr=3.333 Vminpu=0.95 Vmaxpu=1.05 Daily=LS_1
New load.S73P Bus=73.1 Phases=1 Model=1 kV=2.4018 kW=13.33 kVAr=6.667 Vminpu=0.95 Vmaxpu=1.05 Daily=LS_1
New load.S75P Bus=75.1 Phases=1 Model=1 kV=2.4018 kW=13.33 kVAr=6.667 Vminpu=0.95 Vmaxpu=1.05 Daily=LS_1
New load.S76P Bus=76.1 Phases=1 Model=1 kV=2.4018 kW=13.33 kVAr=6.667 Vminpu=0.95 Vmaxpu=1.05 Daily=LS_1
New load.S77P Bus=77.1 Phases=1 Model=1 kV=2.4018 kW=13.33 kVAr=6.667 Vminpu=0.95 Vmaxpu=1.05 Daily=LS_1
New load.S78P Bus=78.1 Phases=1 Model=1 kV=2.4018 kW=81.67 kVAr=60 Vminpu=0.95 Vmaxpu=1.05 Daily=LS_1
New load.S79P Bus=79.1 Phases=1 Model=1 kV=2.4018 kW=13.33 kVAr=6.667 Vminpu=0.95 Vmaxpu=1.05 Daily=LS_1
New load.S81P Bus=81.1 Phases=1 Model=1 kV=2.4018 kW=13.33 kVAr=6.667 Vminpu=0.95 Vmaxpu=1.05 Daily=LS_1
New load.S82P Bus=82.1 Phases=1 Model=1 kV=2.4018 kW=13.33 kVAr=6.667 Vminpu=0.95 Vmaxpu=1.05 Daily=LS_1
New load.S84P Bus=84.1 Phases=1 Model=1 kV=2.4018 kW=13.33 kVAr=6.667 Vminpu=0.95 Vmaxpu=1.05 Daily=LS_1
New load.S85P Bus=85.1 Phases=1 Model=1 kV=2.4018 kW=6.667 kVAr=3.333 Vminpu=0.95 Vmaxpu=1.05 Daily=LS_1
New load.S86P Bus=86.1 Phases=1 Model=1 kV=2.4018 kW=6.667 kVAr=3.333 Vminpu=0.95 Vmaxpu=1.05 Daily=LS_1
New load.S87P Bus=87.1 Phases=1 Model=1 kV=2.4018 kW=13.33 kVAr=6.667 Vminpu=0.95 Vmaxpu=1.05 Daily=LS_1
New load.S88P Bus=88.1 Phases=1 Model=1 kV=2.4018 kW=6.667 kVAr=3.333 Vminpu=0.95 Vmaxpu=1.05 Daily=LS_1
New load.S89P Bus=89.1 Phases=1 Model=1 kV=2.4018 kW=13.33 kVAr=6.667 Vminpu=0.95 Vmaxpu=1.05 Daily=LS_1
New load.S90P Bus=90.1 Phases=1 Model=1 kV=2.4018 kW=13.33 kVAr=6.667 Vminpu=0.95 Vmaxpu=1.05 Daily=LS_1
New load.S92P Bus=92.1 Phases=1 Model=1 kV=2.4018 kW=13.33 kVAr=6.667 Vminpu=0.95 Vmaxpu=1.05 Daily=LS_1
New load.S94P Bus=94.1 Phases=1 Model=1 kV=2.4018 kW=13.33 kVAr=6.667 Vminpu=0.95 Vmaxpu=1.05 Daily=LS_1
New load.S96P Bus=96.1 Phases=1 Model=1 kV=2.4018 kW=13.33 kVAr=6.667 Vminpu=0.95 Vmaxpu=1.05 Daily=LS_1
New load.S97P Bus=97.1 Phases=1 Model=1 kV=2.4018 kW=6.667 kVAr=3.333 Vminpu=0.95 Vmaxpu=1.05 Daily=LS_1
New load.S98P Bus=98.1 Phases=1 Model=1 kV=2.4018 kW=6.667 kVAr=3.333 Vminpu=0.95 Vmaxpu=1.05 Daily=LS_1
New load.S100P Bus=100.1 Phases=1 Model=1 kV=2.4018 kW=13.33 kVAr=6.667 Vminpu=0.95 Vmaxpu=1.05 Daily=LS_1
New load.S101P Bus=101.1 Phases=1 Model=1 kV=2.4018 kW=13.33 kVAr=6.667 Vminpu=0.95 Vmaxpu=1.05 Daily=LS_1
New load.S102P Bus=102.1 Phases=1 Model=1 kV=2.4018 kW=13.33 kVAr=6.667 Vminpu=0.95 Vmaxpu=1.05 Daily=LS_1
New load.S104P Bus=104.1 Phases=1 Model=1 kV=2.4018 kW=6.667 kVAr=3.333 Vminpu=0.95 Vmaxpu=1.05 Daily=LS_1
New load.S105P Bus=105.1 Phases=1 Model=1 kV=2.4018 kW=13.33 kVAr=6.667 Vminpu=0.95 Vmaxpu=1.05 Daily=LS_1
New load.S106P Bus=106.1 Phases=1 Model=1 kV=2.4018 kW=13.33 kVAr=6.667 Vminpu=0.95 Vmaxpu=1.05 Daily=LS_1
New load.S108P Bus=108.1 Phases=1 Model=1 kV=2.4018 kW=13.33 kVAr=6.667 Vminpu=0.95 Vmaxpu=1.05 Daily=LS_1
New load.S109P Bus=109.1 Phases=1 Model=1 kV=2.4018 kW=13.33 kVAr=6.667 Vminpu=0.95 Vmaxpu=1.05 Daily=LS_1
New load.S111P Bus=111.1 Phases=1 Model=1 kV=2.4018 kW=13.33 kVAr=6.667 Vminpu=0.95 Vmaxpu=1.05 Daily=LS_1
New load.S113P Bus=113.1 Phases=1 Model=1 kV=2.4018 kW=6.667 kVAr=3.333 Vminpu=0.95 Vmaxpu=1.05 Daily=LS_1
New load.S114P Bus=114.1 Phases=1 Model=1 kV=2.4018 kW=6.667 kVAr=3.333 Vminpu=0.95 Vmaxpu=1.05 Daily=LS_1
New load.S115P Bus=115.1 Phases=1 Model=1 kV=2.4018 kW=13.33 kVAr=6.667 Vminpu=0.95 Vmaxpu=1.05 Daily=LS_1
New load.S116P Bus=116.1 Phases=1 Model=1 kV=2.4018 kW=6.667 kVAr=3.333 Vminpu=0.95 Vmaxpu=1.05 Daily=LS_1

Set mode=Daily
Set number=10
Set stepsize=3s

Solve